
[1m[7m[36m RUN [39m[27m[22m [36mv2.1.9 [39m[90mC:/local_working_projects/digital_in_browser[39m

[90mstdout[2m | src/components/semiconductors/__tests__/diode-canon-temp-sweep.test.ts[2m > [22m[2mDiode temperature sweep 350 K paired vs ngspice (T3)
[22m[39m[_materializeCir] circuitTemp=350 K -> deck:
Auto-generated netlist
.options TEMP=76.85000000000002
D1 1 0 D1_D AREA=1 TEMP=27
R1 2 1 1000
V1 2 0 DC 1
.model D1_D D (IS=1e-14 N=1 RS=0 CJO=0 VJ=1 M=0.5 TT=0 FC=0.5 IBV=0.001 EG=1.11 XTI=3 KF=0 AF=1 TNOM=27 JSW=0)
.end
[end deck]

[90mstdout[2m | src/components/semiconductors/__tests__/diode-canon-temp-sweep.test.ts[2m > [22m[2mDiode temperature sweep 400 K paired vs ngspice (T3)
[22m[39m[_materializeCir] circuitTemp=400 K -> deck:
Auto-generated netlist
.options TEMP=126.85000000000002
D1 1 0 D1_D AREA=1 TEMP=27
R1 2 1 1000
V1 2 0 DC 1
.model D1_D D (IS=1e-14 N=1 RS=0 CJO=0 VJ=1 M=0.5 TT=0 FC=0.5 IBV=0.001 EG=1.11 XTI=3 KF=0 AF=1 TNOM=27 JSW=0)
.end
[end deck]

 [31m❯[39m src/components/semiconductors/__tests__/diode-canon-temp-sweep.test.ts [2m([22m[2m3 tests[22m[2m | [22m[31m1 failed[39m[2m | [22m[33m2 skipped[39m[2m)[22m[90m 118[2mms[22m[39m
[31m   [31m×[31m Diode temperature sweep 300.15 K paired vs ngspice (T3)[2m > [22mtemp_300_15K_compareAllAttempts[90m 9[2mms[22m[31m[39m
[31m     → 4 per-iteration divergence(s); first: rhs step 0/iter 0 rhs[0] ours=-0.008647662705740902 ngspice=-0.0086476627057409 absDelta=1.734723475976807e-18: expected 4 to be +0 // Object.is equality[39m

[2m Test Files [22m [1m[31m1 failed[39m[22m[90m (1)[39m
[2m      Tests [22m [1m[31m1 failed[39m[22m[2m | [22m[33m2 skipped[39m[90m (3)[39m
[2m   Start at [22m 12:28:01
[2m   Duration [22m 2.90s[2m (transform 1.63s, setup 2.43s, collect 18ms, tests 118ms, environment 0ms, prepare 122ms)[22m

